<net>
    <location netOffset="0.00,0.00" convBoundary="0.00,0.00,500.00,500.00" origBoundary="0.00,0.00,500.00,500.00"/>

    <!-- Two edges (roads) -->
    <edge id="edge1" from="n1" to="n2" numLanes="1" speed="13.9"/>
    <edge id="edge2" from="n2" to="n3" numLanes="1" speed="13.9"/>

    <!-- Nodes (junctions) -->
    <node id="n1" x="0.0" y="0.0" type="priority"/>
    <node id="n2" x="250.0" y="0.0" type="traffic_light"/>
    <node id="n3" x="500.0" y="0.0" type="priority"/>
</net>
