<?xml version="1.0" encoding="UTF-8"?>

<!-- generated on 2025-09-16 11:34:54.249136 by randomTrips.py v1_24_0+0000-b72eb3fabc8
<configuration>
    <net-file value="mymap.net.xml"/>
    <output-trip-file value="routes_generated.rou.xml"/>
    <end value="43200.0"/>
    <period value="2.0"/>
</configuration>
-->

<routes xmlns:xsi="http://www.w3.org/2001/XMLSchema-instance" xsi:noNamespaceSchemaLocation="http://sumo.dlr.de/xsd/routes_file.xsd">
    <trip id="0" depart="0.00" from="122942069#0" to="-1117958401#0"/>
    <trip id="1" depart="2.00" from="-123129565#3" to="-123123234#3"/>
    <trip id="2" depart="4.00" from="123123050" to="122968746#1"/>
    <trip id="3" depart="6.00" from="421994448#2" to="-122596498#0"/>
    <trip id="4" depart="8.00" from="-422605760#1" to="-1120232000"/>
    <trip id="5" depart="10.00" from="-123123101" to="1117790192#1"/>
    <trip id="6" depart="12.00" from="-1116843331" to="-123114551#2"/>
    <trip id="7" depart="14.00" from="122949187#0" to="122460005#8"/>
    <trip id="8" depart="16.00" from="-123123158#1" to="122582671#0"/>
    <trip id="9" depart="18.00" from="123142546#0" to="-1105471944#1"/>
    <trip id="10" depart="20.00" from="123142468#12" to="123027329#0"/>
    <trip id="11" depart="22.00" from="-421987288#30" to="-122953958#3"/>
    <trip id="12" depart="24.00" from="422621555" to="-421987317#0"/>
    <trip id="13" depart="26.00" from="-122596464#2" to="-122596550#1"/>
    <trip id="14" depart="28.00" from="421979237#0" to="122596509#0"/>
    <trip id="15" depart="30.00" from="123142494" to="123123044#1"/>
    <trip id="16" depart="32.00" from="122459961#5" to="423090076"/>
    <trip id="17" depart="34.00" from="-422202932#4" to="122460095#1"/>
    <trip id="18" depart="36.00" from="1318589418" to="122923810"/>
    <trip id="19" depart="38.00" from="421983113#6" to="122582424"/>
    <trip id="20" depart="40.00" from="123114462#9" to="-122460123#5"/>
    <trip id="21" depart="42.00" from="-123123222#1" to="-123144619#0"/>
    <trip id="22" depart="44.00" from="-122582577#2" to="-123123283#5"/>
    <trip id="23" depart="46.00" from="-122596511#1" to="-123142471#1"/>
    <trip id="24" depart="48.00" from="122941894#2" to="-421999988#1"/>
    <trip id="25" depart="50.00" from="-421999934#2" to="-123123078#2"/>
    <trip id="26" depart="52.00" from="-123129515#0" to="422603463#0"/>
    <trip id="27" depart="54.00" from="122949174#0" to="122596536#5"/>
    <trip id="28" depart="56.00" from="-122968731#1" to="123123043#2"/>
    <trip id="29" depart="58.00" from="-122953947#0" to="-422397983#1"/>
    <trip id="30" depart="60.00" from="423106943#1" to="122949123#3"/>
    <trip id="31" depart="62.00" from="122460123#6" to="122968833#2"/>
    <trip id="32" depart="64.00" from="421979139#6" to="123129482#1"/>
    <trip id="33" depart="66.00" from="-123123226#2" to="-122459903#1"/>
    <trip id="34" depart="68.00" from="-421979139#0" to="-123129557#0"/>
    <trip id="35" depart="70.00" from="-123114564#4" to="422616589#8"/>
    <trip id="36" depart="72.00" from="421987380#2" to="-421979231#0"/>
    <trip id="37" depart="74.00" from="122949220#2" to="-422600446#0"/>
    <trip id="38" depart="76.00" from="422408305" to="-423106999#1"/>
    <trip id="39" depart="78.00" from="-123129502#0" to="-123129400#3"/>
    <trip id="40" depart="80.00" from="122460160#2" to="-123129523#3"/>
    <trip id="41" depart="82.00" from="122582575#3" to="422202937#4"/>
    <trip id="42" depart="84.00" from="-422596270#0" to="-123123212#8"/>
    <trip id="43" depart="86.00" from="995449284#0" to="1117961507"/>
    <trip id="44" depart="88.00" from="-122596443#0" to="-122460141#5"/>
    <trip id="45" depart="90.00" from="-122923678#0" to="122925805#1"/>
    <trip id="46" depart="92.00" from="123129528#0" to="-422616707#1"/>
    <trip id="47" depart="94.00" from="-122463169#21" to="-422408293"/>
    <trip id="48" depart="96.00" from="449448120#0" to="122459944#7"/>
    <trip id="49" depart="98.00" from="423090028#2" to="421987309#1"/>
    <trip id="50" depart="100.00" from="-1116224869#1" to="123114553#3"/>
    <trip id="51" depart="102.00" from="122968752#0" to="122459972#0"/>
    <trip id="52" depart="104.00" from="-123129514#0" to="122949136"/>
    <trip id="53" depart="106.00" from="-122923752#0" to="-423062483"/>
    <trip id="54" depart="108.00" from="-423090064#0" to="422621547#0"/>
    <trip id="55" depart="110.00" from="421987376#2" to="-123129526#0"/>
    <trip id="56" depart="112.00" from="1116769832#0" to="-123027193#0"/>
    <trip id="57" depart="114.00" from="422397985#1" to="421987392#1"/>
    <trip id="58" depart="116.00" from="-123144686#0" to="122949114#7"/>
    <trip id="59" depart="118.00" from="122596526#0" to="-122953923#3"/>
    <trip id="60" depart="120.00" from="123123288#2" to="122459976#5"/>
    <trip id="61" depart="122.00" from="123129425#1" to="122459949#0"/>
    <trip id="62" depart="124.00" from="-1046049149#3" to="-421983083#0"/>
    <trip id="63" depart="126.00" from="-1116529407" to="422603404#6"/>
    <trip id="64" depart="128.00" from="421987396#5" to="364398748#3"/>
    <trip id="65" depart="130.00" from="-176286950#2" to="-122582272#4"/>
    <trip id="66" depart="132.00" from="421987392#1" to="422616650"/>
    <trip id="67" depart="134.00" from="-122582670#0" to="1116496199"/>
    <trip id="68" depart="136.00" from="-122582267#1" to="123129307#2"/>
    <trip id="69" depart="138.00" from="123129295#7" to="-122949166#1"/>
    <trip id="70" depart="140.00" from="-423121563" to="122460070#19"/>
    <trip id="71" depart="142.00" from="-123129503#1" to="421987402#3"/>
    <trip id="72" depart="144.00" from="-422605766#4" to="-123123144"/>
    <trip id="73" depart="146.00" from="122459974#11" to="123123044#4"/>
    <trip id="74" depart="148.00" from="-123114515#1" to="-421979147#0"/>
    <trip id="75" depart="150.00" from="444480569#0" to="122949213#5"/>
    <trip id="76" depart="152.00" from="-422621572#1" to="1144641905#10"/>
    <trip id="77" depart="154.00" from="-122925722" to="-123123246#1"/>
    <trip id="78" depart="156.00" from="-421987286#15" to="122582659#4"/>
    <trip id="79" depart="158.00" from="-123123234#2" to="-123123217#1"/>
    <trip id="80" depart="160.00" from="-122582285#4" to="122941877"/>
    <trip id="81" depart="162.00" from="-123123226#0" to="422397974"/>
    <trip id="82" depart="164.00" from="421983108#4" to="-122582630#1"/>
    <trip id="83" depart="166.00" from="-123123280#1" to="122953951#4"/>
    <trip id="84" depart="168.00" from="-123123042#5" to="-122949192#2"/>
    <trip id="85" depart="170.00" from="422603430#1" to="122582261#5"/>
    <trip id="86" depart="172.00" from="-423106999#0" to="123129532#0"/>
    <trip id="87" depart="174.00" from="123142514#1" to="-123114504#1"/>
    <trip id="88" depart="176.00" from="-122596480#2" to="-422780498"/>
    <trip id="89" depart="178.00" from="-422616588#0" to="1046049151"/>
    <trip id="90" depart="180.00" from="123114562#4" to="122968661#0"/>
    <trip id="91" depart="182.00" from="423106820" to="-122923687"/>
    <trip id="92" depart="184.00" from="-422600444#1" to="-421987339#2"/>
    <trip id="93" depart="186.00" from="421983113#6" to="-123129411#1"/>
    <trip id="94" depart="188.00" from="-123114462#5" to="-423090135#0"/>
    <trip id="95" depart="190.00" from="-422605760#1" to="-123142491"/>
    <trip id="96" depart="192.00" from="-123129343#0" to="422600444#6"/>
    <trip id="97" depart="194.00" from="-422780461" to="421987313#0"/>
    <trip id="98" depart="196.00" from="122460024#7" to="-122463169#10"/>
    <trip id="99" depart="198.00" from="995449306" to="421979147#1"/>
    <trip id="100" depart="200.00" from="423090007#2" to="422600467#2"/>
    <trip id="101" depart="202.00" from="421979266#0" to="-122968805#1"/>
    <trip id="102" depart="204.00" from="1070279802#1" to="-123123166#3"/>
    <trip id="103" depart="206.00" from="-422600434#1" to="-122582285#1"/>
    <trip id="104" depart="208.00" from="-422202936#0" to="423106866"/>
    <trip id="105" depart="210.00" from="-123129504#1" to="123129528#3"/>
    <trip id="106" depart="212.00" from="-423090083#0" to="-422616711#1"/>
    <trip id="107" depart="214.00" from="422621556#0" to="449237344"/>
    <trip id="108" depart="216.00" from="122460115" to="123114543#2"/>
    <trip id="109" depart="218.00" from="-122953774" to="-123144745#1"/>
    <trip id="110" depart="220.00" from="423062533#2" to="122582504#0"/>
    <trip id="111" depart="222.00" from="122459978#16" to="123123259#2"/>
    <trip id="112" depart="224.00" from="-122460121#1" to="122582614#0"/>
    <trip id="113" depart="226.00" from="1116783972#0" to="421983112#3"/>
    <trip id="114" depart="228.00" from="-122953810#4" to="422780388#2"/>
    <trip id="115" depart="230.00" from="-122582580#2" to="-123114495#28"/>
    <trip id="116" depart="232.00" from="122596431" to="122968717#0"/>
    <trip id="117" depart="234.00" from="-123123269#0" to="-122941985#2"/>
    <trip id="118" depart="236.00" from="421994440#4" to="-123129400#11"/>
    <trip id="119" depart="238.00" from="122596422#4" to="122923812#8"/>
    <trip id="120" depart="240.00" from="-422605728#1" to="122582607#3"/>
    <trip id="121" depart="242.00" from="122459860#1" to="422603450#1"/>
    <trip id="122" depart="244.00" from="-123114534#2" to="123114534#19"/>
    <trip id="123" depart="246.00" from="-123123281#4" to="-422600447#0"/>
    <trip id="124" depart="248.00" from="122953925#0" to="-1289311491"/>
    <trip id="125" depart="250.00" from="-421979140#1" to="123123278#4"/>
    <trip id="126" depart="252.00" from="-122582349" to="-423106989#2"/>
    <trip id="127" depart="254.00" from="995449291#2" to="449766922"/>
    <trip id="128" depart="256.00" from="-122582362#3" to="-123123160#2"/>
    <trip id="129" depart="258.00" from="-123129504#1" to="422603437#0"/>
    <trip id="130" depart="260.00" from="421994344" to="421994416#1"/>
    <trip id="131" depart="262.00" from="-421999915#2" to="-122968624#5"/>
    <trip id="132" depart="264.00" from="293951977#8" to="123114491#23"/>
    <trip id="133" depart="266.00" from="122596537#2" to="423106910#0"/>
    <trip id="134" depart="268.00" from="122949213#0" to="-1116173470"/>
    <trip id="135" depart="270.00" from="123144615#13" to="-123151837#2"/>
    <trip id="136" depart="272.00" from="122953757#1" to="422605754#1"/>
    <trip id="137" depart="274.00" from="-122949114#6" to="-122927747#5"/>
    <trip id="138" depart="276.00" from="-122596545#6" to="122460106#1"/>
    <trip id="139" depart="278.00" from="-123129548#0" to="122596515#1"/>
    <trip id="140" depart="280.00" from="123114512#1" to="-123114567#5"/>
    <trip id="141" depart="282.00" from="122941833#12" to="-123129529#2"/>
    <trip id="142" depart="284.00" from="1102573710#5" to="422397973#1"/>
    <trip id="143" depart="286.00" from="421979201#4" to="-122596529#0"/>
    <trip id="144" depart="288.00" from="-422616588#0" to="-123142467#5"/>
    <trip id="145" depart="290.00" from="-1067464837" to="123129430#0"/>
    <trip id="146" depart="292.00" from="122941946#1" to="-123129520#1"/>
    <trip id="147" depart="294.00" from="123123156#1" to="122460085#2"/>
    <trip id="148" depart="296.00" from="-422616634#0" to="-1116224869#1"/>
    <trip id="149" depart="298.00" from="-122582446#0" to="421994440#2"/>
    <trip id="150" depart="300.00" from="422202937#0" to="122460013#15"/>
    <trip id="151" depart="302.00" from="293951981#10" to="122582577#1"/>
    <trip id="152" depart="304.00" from="-122949222#8" to="-122949152#0"/>
    <trip id="153" depart="306.00" from="-176286955#0" to="422392055"/>
    <trip id="154" depart="308.00" from="123129554#1" to="421987309#0"/>
    <trip id="155" depart="310.00" from="422197879" to="-123123089#2"/>
    <trip id="156" depart="312.00" from="-123129336#1" to="-122923798#0"/>
    <trip id="157" depart="314.00" from="123129445#1" to="421994444#0"/>
    <trip id="158" depart="316.00" from="-422600458#0" to="122923828#0"/>
    <trip id="159" depart="318.00" from="-122953757#0" to="422603407"/>
    <trip id="160" depart="320.00" from="421987288#1" to="423090104#0"/>
    <trip id="161" depart="322.00" from="123142556#2" to="421994430#0"/>
    <trip id="162" depart="324.00" from="-1116783985#1" to="123123177#0"/>
    <trip id="163" depart="326.00" from="-421983103#0" to="422603421"/>
    <trip id="164" depart="328.00" from="123129585#6" to="421987335#1"/>
    <trip id="165" depart="330.00" from="123142556#2" to="-123129550#0"/>
    <trip id="166" depart="332.00" from="123129503#2" to="-122923843#2"/>
    <trip id="167" depart="334.00" from="421987340#1" to="421987288#29"/>
    <trip id="168" depart="336.00" from="-123123178#1" to="123144747#0"/>
    <trip id="169" depart="338.00" from="-423090126#3" to="-293953306#7"/>
    <trip id="170" depart="340.00" from="123129550#0" to="-123123265#0"/>
    <trip id="171" depart="342.00" from="-1116783970#1" to="-123114523#0"/>
    <trip id="172" depart="344.00" from="-421983012#10" to="421987339#0"/>
    <trip id="173" depart="346.00" from="423062441#2" to="-123142519#0"/>
    <trip id="174" depart="348.00" from="122949112#1" to="-422600470#6"/>
    <trip id="175" depart="350.00" from="423090133#1" to="122459971#14"/>
    <trip id="176" depart="352.00" from="422603456#0" to="-122927747#4"/>
    <trip id="177" depart="354.00" from="423090011#3" to="-123027172#1"/>
    <trip id="178" depart="356.00" from="422780388#3" to="-123129541#0"/>
    <trip id="179" depart="358.00" from="-122596550#0" to="-423062469"/>
    <trip id="180" depart="360.00" from="123114561#2" to="-421979209#0"/>
    <trip id="181" depart="362.00" from="122596509#3" to="1117975911#2"/>
    <trip id="182" depart="364.00" from="-422397956" to="122582403#2"/>
    <trip id="183" depart="366.00" from="-123129406#1" to="123114495#54"/>
    <trip id="184" depart="368.00" from="-1046049168" to="422600463#2"/>
    <trip id="185" depart="370.00" from="122459971#2" to="123114548#1"/>
    <trip id="186" depart="372.00" from="123123165#0" to="122953962#6"/>
    <trip id="187" depart="374.00" from="-421994438#1" to="-122582617#2"/>
    <trip id="188" depart="376.00" from="122953778#3" to="-421983115#11"/>
    <trip id="189" depart="378.00" from="-421979132#4" to="421983030"/>
    <trip id="190" depart="380.00" from="123114527" to="-1328994175"/>
    <trip id="191" depart="382.00" from="-293953306#11" to="-422605728#0"/>
    <trip id="192" depart="384.00" from="-422600443#7" to="-123144734#0"/>
    <trip id="193" depart="386.00" from="-122941897#0" to="-422616698#1"/>
    <trip id="194" depart="388.00" from="422603463#1" to="122968761"/>
    <trip id="195" depart="390.00" from="422202925#1" to="122923747#1"/>
    <trip id="196" depart="392.00" from="-123144734#0" to="122460024#2"/>
    <trip id="197" depart="394.00" from="-1046049149#1" to="-123142600#0"/>
    <trip id="198" depart="396.00" from="-422616681#0" to="122582523#1"/>
    <trip id="199" depart="398.00" from="122949214#4" to="-995449292#0"/>
    <trip id="200" depart="400.00" from="-422780388#2" to="-123123166#2"/>
    <trip id="201" depart="402.00" from="-423107002#2" to="422396753#0"/>
    <trip id="202" depart="404.00" from="123129553#3" to="-122968826#3"/>
    <trip id="203" depart="406.00" from="-122582656#6" to="1118027596#0"/>
    <trip id="204" depart="408.00" from="122927729#0" to="-421987305#4"/>
    <trip id="205" depart="410.00" from="123144631#1" to="123123276#2"/>
    <trip id="206" depart="412.00" from="122953947#6" to="-123123246#0"/>
    <trip id="207" depart="414.00" from="-123114502#1" to="-1117956705#0"/>
    <trip id="208" depart="416.00" from="-123129301#4" to="1105471943#1"/>
    <trip id="209" depart="418.00" from="421979304#2" to="-122582656#5"/>
    <trip id="210" depart="420.00" from="-422603433#1" to="122927747#5"/>
    <trip id="211" depart="422.00" from="-123114495#21" to="123027276#1"/>
    <trip id="212" depart="424.00" from="1116438448" to="-123129351"/>
    <trip id="213" depart="426.00" from="122949221#6" to="-1102573710#3"/>
    <trip id="214" depart="428.00" from="123123228#2" to="123129418#0"/>
    <trip id="215" depart="430.00" from="-122596544#8" to="-422621565"/>
    <trip id="216" depart="432.00" from="-122968807#0" to="422621583#0"/>
    <trip id="217" depart="434.00" from="1118027596#2" to="-122462696#9"/>
    <trip id="218" depart="436.00" from="-123129329#0" to="421983045#0"/>
    <trip id="219" depart="438.00" from="-423090095#1" to="123142549#1"/>
    <trip id="220" depart="440.00" from="122953861#1" to="423106924#1"/>
    <trip id="221" depart="442.00" from="122596435#0" to="422616691#0"/>
    <trip id="222" depart="444.00" from="421994445#2" to="122596550#0"/>
    <trip id="223" depart="446.00" from="123114523#1" to="1117788625#2"/>
    <trip id="224" depart="448.00" from="176286941#0" to="122460024#19"/>
    <trip id="225" depart="450.00" from="421999984#6" to="123123228#0"/>
    <trip id="226" depart="452.00" from="-423121544#2" to="-123129505#2"/>
    <trip id="227" depart="454.00" from="-123129309#6" to="122949112#7"/>
    <trip id="228" depart="456.00" from="123129295#7" to="122459903#1"/>
    <trip id="229" depart="458.00" from="122923844#1" to="-123129587#4"/>
    <trip id="230" depart="460.00" from="-122582526#2" to="-123142596#0"/>
    <trip id="231" depart="462.00" from="-123129544#0" to="-421979327#1"/>
    <trip id="232" depart="464.00" from="122459974#3" to="-122949224#0"/>
    <trip id="233" depart="466.00" from="-123123245#1" to="123027140#10"/>
    <trip id="234" depart="468.00" from="123114482" to="-122582494"/>
    <trip id="235" depart="470.00" from="-422600466#1" to="122460004#5"/>
    <trip id="236" depart="472.00" from="-422603446#1" to="-123123044#2"/>
    <trip id="237" depart="474.00" from="-422605752#0" to="422397969"/>
    <trip id="238" depart="476.00" from="122582563#0" to="123027156#1"/>
    <trip id="239" depart="478.00" from="421983078#0" to="123129372#0"/>
    <trip id="240" depart="480.00" from="-422392049" to="-1104909834#0"/>
    <trip id="241" depart="482.00" from="-421987390#2" to="123123282#5"/>
    <trip id="242" depart="484.00" from="421983009#0" to="422616710#4"/>
    <trip id="243" depart="486.00" from="-422605725#3" to="123123257"/>
    <trip id="244" depart="488.00" from="122460005#26" to="122596507#2"/>
    <trip id="245" depart="490.00" from="-123123159#1" to="-123123213#0"/>
    <trip id="246" depart="492.00" from="-422621548#3" to="-1118021985"/>
    <trip id="247" depart="494.00" from="-421983114#1" to="122968794#2"/>
    <trip id="248" depart="496.00" from="-422600444#33" to="-122968794#0"/>
    <trip id="249" depart="498.00" from="-423106877" to="-122949153#1"/>
    <trip id="250" depart="500.00" from="122923812#11" to="-1117979861#1"/>
    <trip id="251" depart="502.00" from="-422413525" to="122462696#3"/>
    <trip id="252" depart="504.00" from="-1116858376" to="122949167#0"/>
    <trip id="253" depart="506.00" from="-122949127" to="-423121576#1"/>
    <trip id="254" depart="508.00" from="-122459949#34" to="-422397982#0"/>
    <trip id="255" depart="510.00" from="-123114566#6" to="-421983108#2"/>
    <trip id="256" depart="512.00" from="123123283#4" to="-422397982#1"/>
    <trip id="257" depart="514.00" from="123123238#0" to="364398748#7"/>
    <trip id="258" depart="516.00" from="-123129394" to="-122596465#3"/>
    <trip id="259" depart="518.00" from="-1116519250" to="122459976#6"/>
    <trip id="260" depart="520.00" from="995452683" to="-421994374#1"/>
    <trip id="261" depart="522.00" from="122949188#2" to="123129514#1"/>
    <trip id="262" depart="524.00" from="122949198#0" to="123123284#4"/>
    <trip id="263" depart="526.00" from="422616653#1" to="-123114553#1"/>
    <trip id="264" depart="528.00" from="-1116763163" to="-122953922#0"/>
    <trip id="265" depart="530.00" from="-122941833#4" to="122953953#6"/>
    <trip id="266" depart="532.00" from="122460177#3" to="-123123212#11"/>
    <trip id="267" depart="534.00" from="123027144#0" to="123129400#0"/>
    <trip id="268" depart="536.00" from="-122968630#0" to="122596529#2"/>
    <trip id="269" depart="538.00" from="123123213#0" to="-122927716#9"/>
    <trip id="270" depart="540.00" from="123144650#1" to="423062379#1"/>
    <trip id="271" depart="542.00" from="-122596549#2" to="-1117969622"/>
    <trip id="272" depart="544.00" from="-364398748#0" to="122968765#0"/>
    <trip id="273" depart="546.00" from="422621568#0" to="-422600455"/>
    <trip id="274" depart="548.00" from="123114495#7" to="-122582684#5"/>
    <trip id="275" depart="550.00" from="122968842#3" to="122925792#1"/>
    <trip id="276" depart="552.00" from="-122596516#1" to="123129448#0"/>
    <trip id="277" depart="554.00" from="421979309#4" to="122596483#0"/>
    <trip id="278" depart="556.00" from="-122925726" to="423106830#1"/>
    <trip id="279" depart="558.00" from="123129474#1" to="-421987402#3"/>
    <trip id="280" depart="560.00" from="-422616652" to="-422202932#3"/>
    <trip id="281" depart="562.00" from="1116858383" to="-421987360#3"/>
    <trip id="282" depart="564.00" from="421979304#0" to="176286950#10"/>
    <trip id="283" depart="566.00" from="-122596539#3" to="422780388#3"/>
    <trip id="284" depart="568.00" from="122941894#1" to="293953306#3"/>
    <trip id="285" depart="570.00" from="123114490#6" to="-423062510#5"/>
    <trip id="286" depart="572.00" from="123123042#0" to="423062441#0"/>
    <trip id="287" depart="574.00" from="-123129530#1" to="123144615#1"/>
    <trip id="288" depart="576.00" from="122459971#14" to="1116459453#1"/>
    <trip id="289" depart="578.00" from="-422621547#5" to="123123054#1"/>
    <trip id="290" depart="580.00" from="-123129522#0" to="421983105#5"/>
    <trip id="291" depart="582.00" from="176286942" to="-122596494#1"/>
    <trip id="292" depart="584.00" from="421994359#1" to="-123129350"/>
    <trip id="293" depart="586.00" from="-423106801#0" to="122596544#1"/>
    <trip id="294" depart="588.00" from="-422202936#1" to="-1118011877#0"/>
    <trip id="295" depart="590.00" from="421979313#1" to="-123114463#5"/>
    <trip id="296" depart="592.00" from="-123114567#3" to="123142468#9"/>
    <trip id="297" depart="594.00" from="-421987288#31" to="421994425#1"/>
    <trip id="298" depart="596.00" from="123027270#1" to="-123142467#1"/>
    <trip id="299" depart="598.00" from="-1116193740#2" to="422616672"/>
    <trip id="300" depart="600.00" from="-122582664#2" to="123114551#2"/>
    <trip id="301" depart="602.00" from="1102626640#0" to="123129295#4"/>
    <trip id="302" depart="604.00" from="122968842#3" to="122949190#1"/>
    <trip id="303" depart="606.00" from="1111042530#1" to="123129582#4"/>
    <trip id="304" depart="608.00" from="-122596464#6" to="-123123225#1"/>
    <trip id="305" depart="610.00" from="122968852#10" to="-293953308#8"/>
    <trip id="306" depart="612.00" from="122582510#1" to="1084218182#7"/>
    <trip id="307" depart="614.00" from="122459944#4" to="-422621569#0"/>
    <trip id="308" depart="616.00" from="123123208#1" to="-421987286#0"/>
    <trip id="309" depart="618.00" from="123027321#5" to="-123129577#1"/>
    <trip id="310" depart="620.00" from="-123129373" to="-122942059#5"/>
    <trip id="311" depart="622.00" from="-123114486" to="-122941978#1"/>
    <trip id="312" depart="624.00" from="122459961#13" to="123129311#12"/>
    <trip id="313" depart="626.00" from="-123026971#4" to="-123123198"/>
    <trip id="314" depart="628.00" from="1065046829#0" to="123114566#1"/>
    <trip id="315" depart="630.00" from="423090102#2" to="122459927#3"/>
    <trip id="316" depart="632.00" from="-123142468#2" to="-122923752#1"/>
    <trip id="317" depart="634.00" from="-123114495#18" to="-123123264#1"/>
    <trip id="318" depart="636.00" from="-122968829#7" to="-1116763161#1"/>
    <trip id="319" depart="638.00" from="122459949#33" to="-123129587#0"/>
    <trip id="320" depart="640.00" from="423090082#1" to="122460107#1"/>
    <trip id="321" depart="642.00" from="123027002#13" to="-122949134"/>
    <trip id="322" depart="644.00" from="421987311#1" to="1116763166"/>
    <trip id="323" depart="646.00" from="421987348#1" to="122582301#0"/>
    <trip id="324" depart="648.00" from="-423106926#0" to="-423090065"/>
    <trip id="325" depart="650.00" from="-122983314#1" to="-122463169#21"/>
    <trip id="326" depart="652.00" from="422605725#2" to="1111042534#1"/>
    <trip id="327" depart="654.00" from="123144699#3" to="-422603404#3"/>
    <trip id="328" depart="656.00" from="-122582412#1" to="122927741#2"/>
    <trip id="329" depart="658.00" from="-122460005#0" to="-122953864#2"/>
    <trip id="330" depart="660.00" from="122460174#13" to="-293953306#12"/>
    <trip id="331" depart="662.00" from="423121558" to="-122941928#3"/>
    <trip id="332" depart="664.00" from="123129292#3" to="122596522#6"/>
    <trip id="333" depart="666.00" from="123129521#3" to="-123123253#0"/>
    <trip id="334" depart="668.00" from="122459858#0" to="-423106784"/>
    <trip id="335" depart="670.00" from="-422780408" to="421987305#2"/>
    <trip id="336" depart="672.00" from="423106958#1" to="-293953307"/>
    <trip id="337" depart="674.00" from="122923797" to="122596539#3"/>
    <trip id="338" depart="676.00" from="123123133" to="422616661#1"/>
    <trip id="339" depart="678.00" from="-123114551#4" to="-123123124#0"/>
    <trip id="340" depart="680.00" from="122953704#7" to="-122958842#0"/>
    <trip id="341" depart="682.00" from="-122968778#2" to="-122582678#0"/>
    <trip id="342" depart="684.00" from="-1063918023" to="-423106784"/>
    <trip id="343" depart="686.00" from="122596421#3" to="-123144664#0"/>
    <trip id="344" depart="688.00" from="-123123246#2" to="123114495#29"/>
    <trip id="345" depart="690.00" from="123027328#0" to="-423106885#1"/>
    <trip id="346" depart="692.00" from="122968818#3" to="422600447#3"/>
    <trip id="347" depart="694.00" from="123129506#1" to="122925702"/>
    <trip id="348" depart="696.00" from="122953711#1" to="422603440"/>
    <trip id="349" depart="698.00" from="-422616590#8" to="122460005#30"/>
    <trip id="350" depart="700.00" from="122949171#1" to="422408264#3"/>
    <trip id="351" depart="702.00" from="123144777#2" to="-122582636#0"/>
    <trip id="352" depart="704.00" from="-122953962#3" to="-364398748#25"/>
    <trip id="353" depart="706.00" from="123123218#1" to="122546431#2"/>
    <trip id="354" depart="708.00" from="-123142571#5" to="-122949114#5"/>
    <trip id="355" depart="710.00" from="122968829#1" to="123114463#3"/>
    <trip id="356" depart="712.00" from="422605754#5" to="1116865402#0"/>
    <trip id="357" depart="714.00" from="1116224869#0" to="-122596464#0"/>
    <trip id="358" depart="716.00" from="-1117992264" to="-422780553#0"/>
    <trip id="359" depart="718.00" from="-421979266#0" to="-123129428#2"/>
    <trip id="360" depart="720.00" from="-122596447#0" to="422780467"/>
    <trip id="361" depart="722.00" from="293951983#9" to="122582353"/>
    <trip id="362" depart="724.00" from="422616682#0" to="995450850"/>
    <trip id="363" depart="726.00" from="122953927#3" to="-123129567#4"/>
    <trip id="364" depart="728.00" from="-1118011877#1" to="123123294#2"/>
    <trip id="365" depart="730.00" from="-423106943#0" to="122949221#2"/>
    <trip id="366" depart="732.00" from="422408338#1" to="-123114463#0"/>
    <trip id="367" depart="734.00" from="122582596#1" to="122942032"/>
    <trip id="368" depart="736.00" from="1111042534#1" to="-122596522#2"/>
    <trip id="369" depart="738.00" from="-421987360#3" to="-421987288#28"/>
    <trip id="370" depart="740.00" from="122953905#0" to="421987288#17"/>
    <trip id="371" depart="742.00" from="-421983043" to="123027111"/>
    <trip id="372" depart="744.00" from="-123142562#2" to="422616612"/>
    <trip id="373" depart="746.00" from="123142591#4" to="122460070#4"/>
    <trip id="374" depart="748.00" from="-423090082#0" to="-421979227#3"/>
    <trip id="375" depart="750.00" from="-421979304#0" to="423090033#0"/>
    <trip id="376" depart="752.00" from="-422600444#31" to="1118011877#1"/>
    <trip id="377" depart="754.00" from="423106921#0" to="122953722#0"/>
    <trip id="378" depart="756.00" from="122459978#4" to="-422616589#6"/>
    <trip id="379" depart="758.00" from="-123027156#0" to="-421994454#0"/>
    <trip id="380" depart="760.00" from="123123266#1" to="122925727"/>
    <trip id="381" depart="762.00" from="123123280#2" to="-123114567#4"/>
    <trip id="382" depart="764.00" from="122460024#10" to="422600470#4"/>
    <trip id="383" depart="766.00" from="-422621572#1" to="123027329#1"/>
    <trip id="384" depart="768.00" from="-122925744#0" to="423090076"/>
    <trip id="385" depart="770.00" from="122596524#2" to="-123129305#7"/>
    <trip id="386" depart="772.00" from="-122953842#1" to="122460076#2"/>
    <trip id="387" depart="774.00" from="122460070#8" to="-122596536#4"/>
    <trip id="388" depart="776.00" from="423107003#2" to="422413551"/>
    <trip id="389" depart="778.00" from="-423090131#1" to="-122941897#1"/>
    <trip id="390" depart="780.00" from="176286952" to="1116843329"/>
    <trip id="391" depart="782.00" from="123114505#0" to="1117958398"/>
    <trip id="392" depart="784.00" from="-123129554#1" to="421979140#2"/>
    <trip id="393" depart="786.00" from="423090129#1" to="-123129347#0"/>
    <trip id="394" depart="788.00" from="122460070#12" to="-422408340#0"/>
    <trip id="395" depart="790.00" from="422580075#0" to="1117955212#0"/>
    <trip id="396" depart="792.00" from="421987400#1" to="421987335#1"/>
    <trip id="397" depart="794.00" from="-123129572#2" to="123129570#1"/>
    <trip id="398" depart="796.00" from="-422603439#0" to="422603445#3"/>
    <trip id="399" depart="798.00" from="1116865408#9" to="1318589416"/>
    <trip id="400" depart="800.00" from="-123142468#10" to="-123144787#0"/>
    <trip id="401" depart="802.00" from="122582621#0" to="995449295"/>
    <trip id="402" depart="804.00" from="1105471944#4" to="-122953842#1"/>