<?xml version="1.0" encoding="UTF-8"?>

<!-- generated on 2025-09-15 12:55:48.409766 by randomTrips.py v1_24_0+0000-b72eb3fabc8
<configuration>
    <net-file value="mymap.net.xml"/>
    <output-trip-file value="routes.rou.xml"/>
    <flows value="200"/>
</configuration>
-->

<!-- generated on 2025-09-15 12:55:20 by Eclipse SUMO duarouter Version 1.24.0
<duarouterConfiguration xmlns:xsi="http://www.w3.org/2001/XMLSchema-instance" xsi:noNamespaceSchemaLocation="http://sumo.dlr.de/xsd/duarouterConfiguration.xsd">

    <input>
        <net-file value="mymap.net.xml"/>
        <route-files value="routes.rou.xml"/>
    </input>

    <output>
        <output-file value="routes.rou.xml"/>
        <alternatives-output value="NUL"/>
    </output>

    <time>
        <begin value="0"/>
        <end value="3600.0"/>
    </time>

    <report>
        <no-warnings value="true"/>
        <ignore-errors value="true"/>
        <no-step-log value="true"/>
    </report>

</duarouterConfiguration>
-->

<routes xmlns:xsi="http://www.w3.org/2001/XMLSchema-instance" xsi:noNamespaceSchemaLocation="http://sumo.dlr.de/xsd/routes_file.xsd">
    <vehicle id="0.0" depart="0.00">
        <route edges="122942069#0 122942069#1 122942069#2 122942069#3 122942069#4 122460024#18 122460024#19 122460024#20 122460024#21 122459857#4 122460110#0 122460110#1 122460110#2 122460110#3 122460110#4 122460110#5 122460110#6 122460095#0 122460095#1 122460095#2 122460009#3 122460009#4 122460009#5 1111034033 122459860#0 122459860#1 122459860#2 122459860#3 122459860#4 122459946#0 122459946#1 122459946#2 122459946#3 122459946#4 122459946#5 122459946#6 122459946#7 122459946#8 122459946#9 122459946#10 122459946#11 122459946#12 122459946#13 122459946#14 122459950#3 122459950#4 1209654275#0 1209654275#1 -122460137#8 -122460137#7 -122460137#6 -122460137#5 -122460137#4 -122460137#3 -122460137#2 -122460137#1 -122460137#0 -1209654276 995449286#0 995449286#1 -122949112#3 -122949112#2 -122949112#1 -122949112#0 122462606#4 449243537#0 449243537#1 122460123#0 122460123#1 122460123#2 122460123#3 122460123#4 122460123#5 122460123#6 122460123#7 122460123#8 122460123#9 122460123#10 122460123#11 122459913#0 122459913#1 122582670#0 122582670#1 122582670#2 -1117958400 -1117958401#0"/>
    </vehicle>
    <vehicle id="1.0" depart="0.00">
        <route edges="-123129565#3 123129565#3 123129565#4 -293953308#3 -293953308#2 -293953308#1 -293953308#0 1117980920#0 1117980920#1 1117980920#2 1117980922 -122983314#0 1116865408#0 1116865408#1 1116865408#2 1116865408#3 1116865408#4 1116865408#5 1116865408#6 1116865408#7 1116865408#8 1116865408#9 1116865408#10 1116865408#11 1116865408#12 1116865407#1 364398748#0 364398748#1 364398748#2 364398748#3 364398748#4 364398748#5 364398748#6 364398748#7 364398748#8 364398748#9 364398748#10 364398748#11 364398748#12 364398748#13 364398748#14 364398748#15 364398748#16 364398748#17 364398748#18 364398748#19 364398748#20 364398748#21 364398748#22 364398748#23 364398748#24 122582654#1 122582654#2 1116843318#0 1116843318#1 1116843318#2 1116843319 122582272#0 122582272#1 -123123269#3 -123123269#2 -123123269#1 -123123269#0 -123123045#9 -123123045#8 -123123234#4 -123123234#3"/>
    </vehicle>
    <vehicle id="10.0" depart="0.00">
        <route edges="123142468#12 122459968#6 122459968#7 122459968#8 122459968#9 122459968#10 122459968#11 122459968#12 122459968#13 122459968#14 122459968#15 122459968#16 122459968#17 122459963#5 122459963#6 122459963#7 122459991 122459974#0 122459974#1 122459974#2 122459974#3 122459974#4 122459974#5 122459974#6 122459974#7 122459974#8 122459974#9 122459974#10 122459974#11 122459974#12 122459974#13 122459974#14 122459974#15 122459974#16 122459974#17 122459974#18 122459974#19 122459974#20 122459974#21 122459974#22 -422600444#37 -422600444#36 -422600444#35 -422600444#34 -422600444#33 -422600444#32 -422600444#31 -422600444#30 -422600444#29 -422600444#28 1066957144#0 1066957145 123114491#1 123114491#2 123114491#3 123114491#4 123114491#5 123114491#6 -123114462#9 -123114462#8 -123114462#7 -123114462#6 -123114462#5 -123114462#4 -123114462#3 -123114462#2 -123114462#1 -123114462#0 123026998#0 123026998#1 123026998#2 123026998#3 123026998#4 123026998#5 123026998#6 123027328#0 123027328#1 123027328#2 123027144#1 123027144#2 123027144#3 123027144#4 123027144#5 123027144#6 -123026971#16 -123026971#15 -123026971#14 123027329#0"/>
    </vehicle>
    <vehicle id="100.0" depart="0.00">
        <route edges="423090007#2 -1100595420 423107002#1 423107002#2 423090127#0 423090127#1 423090127#2 122953711#1 122953711#2 -423121562 -122459976#7 -122459976#6 -122459976#5 -122459976#4 -122459976#3 -122459976#2 -122459976#1 -122459976#0 122460076#0 122460076#1 122460076#2 122460076#3 122460076#4 122460076#5 122460076#6 122460076#7 122460076#8 -1328994176 -1328994178 1062832924 1328994175 1118011879 293953307 -122459974#22 -122459974#21 -122459974#20 -122459974#19 -123114534#22 -123114534#21 -123114534#20 -123114534#19 -123114534#18 -123114534#17 -123114534#16 -123114534#15 -123114534#14 -123114534#13 -123114534#12 -123114534#11 -123114534#10 -123114534#9 -123114534#8 -123114534#7 -422600459#2 -422600459#1 -422600459#0 -421994450#5 -421994450#4 -421994450#3 -421994450#2 -421994450#1 422600467#0 422600467#1 422600467#2"/>
    </vehicle>
    <vehicle id="101.0" depart="0.00">
        <route edges="421979266#0 -421979266#0 122459949#17 122459949#18 122459949#19 122459949#20 122459949#21 122459949#22 122459949#23 122459949#24 122459949#25 122459949#26 122459949#27 122459949#28 122459949#29 122459949#30 122459949#31 122459949#32 122459949#33 122459949#34 122459949#35 122459949#36 122459949#37 122459949#38 293953306#0 293953306#1 293953306#2 293953306#3 293953306#4 293953306#5 293953306#6 293953306#7 293953306#8 293953306#9 293953306#10 293953306#11 293953306#12 293953306#13 293953306#14 293953306#15 293953306#16 293953306#17 293953306#18 293953306#19 293953306#20 293953306#21 293953306#22 293953306#23 293953306#24 293953306#25 293953306#26 -122460005#31 -122460005#30 -122460005#29 -122460005#28 -122460005#27 -122460005#26 -122460005#25 -122460005#24 -122460005#23 -122460005#22 -122460005#21 -122460005#20 -122460005#19 122459903#0 122459903#1 122459903#2 122459903#3 122463169#1 122463169#2 122463169#3 122463169#4 122463169#5 122463169#6 122463169#7 122463169#8 122463169#9 122463169#10 122463169#11 293951981#9 1084218182#0 1084218182#1 -122968805#4 -122968805#3 -122968805#2 -122968805#1"/>
    </vehicle>
    <vehicle id="102.0" depart="0.00">
        <route edges="1070279802#1 1070279802#2 1070279802#3 1070279802#4 1117721607#0 1117721607#1 123114494#11 123114494#12 123114494#13 123114494#14 123114494#15 123114494#16 -123114462#8 -123114462#7 -123114462#6 -123114462#5 -123114462#4 -123114462#3 -123114462#2 -123114462#1 -123114462#0 123114487 -123114497#6 -123114497#5 -123114497#4 -123114497#3 123123146#0 123123146#1 123123146#2 -123123153 123123091 123123212#2 123123212#3 123123212#4 123123212#5 123123212#6 123123212#7 123123212#8 123123212#9 123123212#10 123123212#11 123123212#12 123123212#13 123123212#14 123123212#15 123123212#16 123123212#17 123123212#18 123123212#19 -123123042#10 -123123042#9 -123123042#8 423106713 -123123166#4 -123123166#3"/>
    </vehicle>
    <vehicle id="103.0" depart="0.00">
        <route edges="-422600434#1 -422600434#0 422600444#12 422600444#13 422600444#14 422600444#15 422600444#16 422600444#17 422600444#18 422600444#19 422600444#20 422600444#21 422600444#22 422600444#23 422600444#24 422600444#25 422600444#26 422600444#27 422600444#28 422600444#29 422600444#30 422600444#31 422600444#32 422600444#33 422600444#34 422600444#35 422600444#36 422600444#37 -293953307 -1118011879 -1328994175 -1062832924 -1062832923 -1328994177 122460076#10 122460076#11 122460076#12 -1289311491 1117980921#0 1117980921#1 1117980921#2 1117980923#0 1117980923#1 1117980920#2 1117980920#3 1117980920#4 293953308#0 293953308#1 293953308#2 293953308#3 293953308#4 293953308#5 293953308#6 293953308#7 293953308#8 293953308#9 293953308#10 293953308#11 293953308#12 293953308#13 -122460123#7 -122460123#6 -122460123#5 -122460123#4 -122582545#3 -122582545#2 -122582545#1 -122582545#0 -122582285#2 -122582285#1"/>
    </vehicle>
    <vehicle id="104.0" depart="0.00">
        <route edges="-422202936#0 421994389#1 422202930 122459974#22 -293953307 -1118011879 -1328994175 -1062832924 -1062832923 -1328994177 122460076#10 122460076#11 122460076#12 -1289311491 -122460141#7 -122460141#6 -122460141#5 -122460141#4 -122460141#3 -122460141#2 -122460141#1 -122460141#0 1117985340#2 -1144641905#13 -1144641905#12 -1144641905#11 -1144641905#10 -122949222#12 -122949222#11 -122949222#10 -122949222#9 -122949222#8 -122949222#7 -122949222#6 -122949222#5 -122949222#4 -122949222#3 -122949222#2 -122949222#1 -122949222#0 1117963096 122949160#6 122949160#7 122949160#0 1117979863 -122949191#2 -122949191#1 -423090136#5 -423090136#4 -423090136#3 423090119#0 423106866"/>
    </vehicle>
    <vehicle id="105.0" depart="0.00">
        <route edges="-123129504#1 422197880#1 -293953308#7 -293953308#6 -293953308#5 -123129302#6 -123129302#5 -123129302#4 -123129302#3 -123129302#2 -123129302#1 123129528#1 123129528#2 123129528#3"/>
    </vehicle>
    <vehicle id="106.0" depart="0.00">
        <route edges="-423090083#0 422600444#13 422600444#14 422600444#15 422600444#16 422600444#17 422600444#18 422600444#19 422600444#20 422600444#21 422600444#22 422600444#23 422600444#24 422600444#25 422600444#26 422600444#27 422600444#28 422600444#29 422600444#30 422600444#31 422600444#32 422600444#33 422600444#34 422600444#35 422600444#36 422600444#37 -293953307 -1118011879 -1328994175 -1062832924 1328994178 1328994176 -122460076#8 -122460076#7 -122460076#6 -122460076#5 -122460076#4 -122460076#3 -122460076#2 -122460076#1 -122460076#0 -293953306#26 -293953306#25 -293953306#24 -293953306#23 -293953306#22 -293953306#21 -293953306#20 -293953306#19 -293953306#18 -293953306#17 -293953306#16 -293953306#15 123142597#0 123142597#1 123142597#2 123142597#3 123142597#4 123142597#5 123142597#6 123142597#7 422616685#0 422616685#1 422616703#2 -422616711#1"/>
    </vehicle>
    <vehicle id="107.0" depart="0.00">
        <route edges="422621556#0 422621556#1 422605728#1 -123144747#5 -123144747#4 -123144747#3 -123144747#2 1116500906 -122460005#22 -122460005#21 -122460005#20 -122460005#19 -122460005#18 -122460005#17 -122460005#16 -122460005#15 -122460005#14 -122460005#13 -122460005#12 -122460005#11 -122460005#10 -122460005#9 -122460005#8 -122460005#7 -122460005#6 -122460005#5 -122460005#4 -122460005#3 -122460005#2 -122460005#1 -122460005#0 122460148#0 293951983#9 293951983#10 293951983#11 293951983#12 122460009#5 1111034033 122459860#0 122459860#1 122459860#2 122459860#3 122459860#4 122459946#0 122459946#1 122459946#2 122459946#3 122459946#4 122459946#5 122459946#6 122459946#7 122459946#8 122459946#9 122459946#10 122459946#11 122459946#12 122459946#13 122459946#14 122459950#3 122459950#4 122459950#5 122459950#6 122459950#0 -122460174#15 -122460174#14 -122460174#13 -122460174#12 -122460174#11 -122460174#10 -122460174#9 -122460174#8 -122460174#7 -122460174#6 -122460174#5 -122460174#4 -122460174#3 -122460174#2 -122460174#1 -122460174#0 449237344"/>
    </vehicle>
    <vehicle id="108.0" depart="0.00">
        <route edges="122460115 122460176#2 -122462678#1 -122462678#0 449241814 122462606#3 122462606#4 449243537#0 449243537#1 122460123#0 122460123#1 122460123#2 122460123#3 122460123#4 122460123#5 122460123#6 122460123#7 -293953308#13 -293953308#12 -293953308#11 -293953308#10 -293953308#9 -293953308#8 -293953308#7 -293953308#6 -293953308#5 -293953308#4 -293953308#3 -293953308#2 -293953308#1 -293953308#0 1117980920#0 1117980924 -1117980921#2 -1117980921#1 -1117980921#0 1289311491 -122460076#12 -122460076#11 -122460076#10 1328994177 1062832923 1062832924 1328994175 1118011879 293953307 -122459974#22 -122459974#21 -122459974#20 -122459974#19 -123114534#22 -123114534#21 -123114534#20 -123114534#19 -123114534#18 -123114534#17 -123114534#16 -123114534#15 -123114534#14 -123114534#13 -123114534#12 -123114534#11 -123114534#10 -123114534#9 -123114534#8 -123114534#7 -123114534#6 -123114534#5 -123114534#4 -123114534#3 -123114534#2 -123114534#1 -123114534#0 1116772854#0 1116772854#1 1116772854#2 1116772854#3 422603427#0 422603427#1 1065075524#0 1065075524#1 1065075524#2 1065075524#3 1065075524#4 123114491#13 123114491#14 123114491#15 123114491#16 123114491#17 123114567#1 123114543#2"/>
    </vehicle>
    <vehicle id="109.0" depart="0.00">
        <route edges="-122953774 122953894#1 122953894#2 122953958#6 122953958#7 122953958#8 -122953731#4 -122953731#3 -122953731#2 -122953731#1 -122953731#0 122459933#3 122459933#4 1109216497#0 1109216497#1 1109216497#2 122949191#0 122949191#1 122949191#2 1117979862 122949160#2 122949160#3 122949160#4 1117963095 122949222#0 122949222#1 122949222#2 122949222#3 122949222#4 122949222#5 122949222#6 122949222#7 122949222#8 122949222#9 122949222#10 122949222#11 122949222#12 1144641905#10 1144641905#11 1144641905#12 1144641905#13 1117985340#0 -122459976#15 -122459976#14 -122459976#13 -122459976#12 -122459976#11 -122459976#10 -122459976#9 -122459976#8 -122459976#7 -122459976#6 -122459976#5 -122459976#4 -122459976#3 -122459976#2 -122459976#1 -122459976#0 -122460005#31 -122460005#30 -122460005#29 -122460005#28 -122460005#27 -122460005#26 122459939#0 122459939#1 122459939#2 122459939#3 -123144699#5 -123144699#4 -123144745#2 -123144745#1"/>
    </vehicle>
    <vehicle id="11.0" depart="0.00">
        <route edges="-421987288#30 -421987288#29 -421987288#28 -422408329#1 -421979269#2 -421979269#1 -421979269#0 122459949#1 122459949#2 122459949#3 122459949#4 122459949#5 122459949#6 122459949#7 122459949#8 122459949#9 122459949#10 122459949#11 122459949#12 122459949#13 122459949#14 122459949#15 122459949#16 122459949#17 122459949#18 122459949#19 122459949#20 122459949#21 122459949#22 122459949#23 122459949#24 122459949#25 122459949#26 122459949#27 122459949#28 122459949#29 122459949#30 122459949#31 122459949#32 122459949#33 122459949#34 122459949#35 122459949#36 122459949#37 122459949#38 122459974#9 122459974#10 122459974#11 122459974#12 122459974#13 122459974#14 122459974#15 122459974#16 122459974#17 122459974#18 122459974#19 122459974#20 122459974#21 122459974#22 -293953307 -1118011879 -1328994175 -1062832924 -1062832923 -1328994177 122460076#10 122460076#11 122460076#12 -1289311491 -122460141#7 -122460141#6 -122460141#5 -122460141#4 -122460141#3 -122460141#2 -122460141#1 -122460141#0 1117985340#2 -1144641905#13 -1144641905#12 -1144641905#11 -1144641905#10 -122949222#12 -122949222#11 -122949222#10 -122949222#9 -122949222#8 -122949222#7 -122949222#6 -122949222#5 -122949222#4 -122949222#3 -122949222#2 -122949222#1 -122949222#0 1117963096 122949160#6 122949160#7 122949160#0 1117979863 -122949191#2 -122949191#1 -122949191#0 1109216496 1209654276 122460137#0 122460137#1 122460137#2 122460137#3 122460137#4 122460137#5 -122953958#9 -122953958#8 -122953958#7 -122953958#6 -122953958#5 -122953958#4 -122953958#3"/>
    </vehicle>
    <vehicle id="110.0" depart="0.00">
        <route edges="423062533#2 423062533#3 122460174#12 122460174#13 122460174#14 122460174#15 122459950#1 122459950#2 122459950#3 122459950#4 1209654275#0 1209654275#1 -122460137#8 -122460137#7 -122460137#6 -122460137#5 -122460137#4 -122460137#3 -122460137#2 -122460137#1 -122460137#0 -1209654276 122459920#0 122459920#1 122459920#2 122459920#3 122459920#4 122459920#5 122459957#5 122459957#6 122460167#0 122460167#1 122460167#2 122460167#3 122460167#4 122460167#5 122459971#5 122459971#6 122459971#7 122459971#8 122459971#9 122459971#10 122459971#11 122459971#12 122459971#13 122459971#14 122459971#15 122459971#16 122459971#17 122460004#7 122460004#8 122460004#9 122460004#10 122460004#11 122460004#12 122460004#13 122460004#14 122460004#15 -122582254#8 -122582254#7 -122582254#6 -122582254#5 -122582254#4 122582504#0"/>
    </vehicle>
    <vehicle id="111.0" depart="0.00">
        <route edges="122459978#16 122459978#17 122459978#18 122459978#19 122460018#0 122460018#1 1154200269#1 122460001#4 122460001#5 122459971#0 122459971#1 122459971#2 122459971#3 122459971#4 122459971#5 122459971#6 122459971#7 122459971#8 122459971#9 122459971#10 122459971#11 122459971#12 122459971#13 122459971#14 122459971#15 122459971#16 122459971#17 122460004#7 122460004#8 122460004#9 122460004#10 122460004#11 122460004#12 122460004#13 122460004#14 122460004#15 -122582254#8 -122582254#7 -122582254#6 -122582254#5 -122582254#4 -122582254#3 -122582254#2 -122582254#1 -122582254#0 -1133109550 -176286960#4 422197882 364398748#15 -123123090 123123246#2 -123123210#1 123123259#2"/>
    </vehicle>
    <vehicle id="112.0" depart="0.00">
        <route edges="-122460121#1 -122460121#0 1084218182#5 1084218182#6 1084218182#7 122460013#1 122460013#2 122460013#3 122460013#4 122460013#5 122460013#6 122460013#7 122460013#8 122460013#9 122460013#10 122460013#11 122460013#12 122460013#13 122460013#14 122460013#15 122941867 293951983#1 293951983#2 293951983#3 293951983#4 293951983#5 293951983#6 293951983#7 293951983#8 293951983#9 293951983#10 293951983#11 293951983#12 122460009#5 1111034033 122459860#0 122459860#1 122459860#2 122459860#3 122459860#4 122459946#0 122459946#1 122459946#2 122459946#3 122459946#4 122459946#5 122459946#6 122459946#7 122459946#8 122459946#9 122459946#10 122459946#11 122459946#12 122459946#13 122459946#14 122459950#3 122459950#4 1209654275#0 1209654275#1 -122460137#8 -122460137#7 -122460137#6 -122460137#5 -122460137#4 -122460137#3 -122460137#2 -122460137#1 -122460137#0 -1209654276 122459920#0 122459920#1 122459920#2 122459920#3 122459920#4 122459920#5 122459957#5 122459957#6 122460167#0 122460167#1 122460167#2 122460167#3 122460167#4 122460167#5 122459971#5 122459971#6 122459932#3 122459932#4 122459932#5 122459932#6 122582603#0 122582614#0"/>
    </vehicle>
    <vehicle id="113.0" depart="0.00">
        <route edges="1116783972#0 1116783972#1 123027270#2 123027328#2 123027328#3 123027140#10 123027276#0 123027276#1 123027002#8 123027002#9 123027002#10 123027002#11 123027002#12 123027002#13 123027002#14 123114462#0 123114462#1 123114462#2 123114462#3 123114462#4 123114462#5 123114462#6 123114462#7 123114462#8 123114494#17 123114494#18 123114494#19 123114494#20 123114491#0 -1066957145 -1066957144#0 422600444#28 422600444#29 422600444#30 422600444#31 422600444#32 422600444#33 422600444#34 422600444#35 422600444#36 422600444#37 -122459974#22 -122459974#21 -122459974#20 -122459974#19 -122459974#18 -122459974#17 -122459974#16 -122459974#15 -122459974#14 -122459974#13 -122459974#12 -122459974#11 -122459974#10 421983012#0 421983012#1 421983012#2 421983012#3 421983012#4 421983112#3"/>
    </vehicle>
    <vehicle id="114.0" depart="0.00">
        <route edges="-122953810#4 422621564 -1116508362#0 -122460005#19 -122460005#18 -122460005#17 -122460005#16 -122460005#15 -122460005#14 -122460005#13 -122460005#12 -122460005#11 -122460005#10 -122460005#9 -122460005#8 -122460005#7 -122460005#6 -122460005#5 -122460005#4 -122460005#3 -122460005#2 122953699#0 122953699#1 122953699#2 422780388#0 422780388#1 422780388#2"/>
    </vehicle>
    <vehicle id="115.0" depart="0.00">
        <route edges="-122582580#2 122582630#2 122582254#7 122582617#3 -122582678#1 -122582678#0 122462644#1 122462644#2 122462644#3 122462644#4 122462644#5 122462644#6 122462644#7 122462644#8 122462644#9 122462644#10 122462644#11 122462644#12 122462644#13 122462644#14 122462644#15 122459913#4 122459913#0 1117979861#0 1117979861#1 1117979861#2 1117979861#3 1117979861#4 -293953308#10 -293953308#9 -293953308#8 -293953308#7 -293953308#6 -293953308#5 -293953308#4 -293953308#3 -293953308#2 -293953308#1 -293953308#0 1117980920#0 1117980924 -1117980921#2 -1117980921#1 -1117980921#0 1289311491 -122460076#12 -122460076#11 -122460076#10 1328994177 1062832923 1062832924 1328994175 1118011879 293953307 -122459974#22 -122459974#21 -122459974#20 -122459974#19 -122459974#18 -122459974#17 -123114495#69 -123114495#68 -123114495#67 -123114495#66 -123114495#65 -123114495#64 -123114495#63 -123114495#62 -123114495#61 -123114495#60 -123114495#59 -123114495#58 -123114495#57 -123114495#56 -123114495#55 -123114495#54 -123114495#53 -123114495#52 -123114495#51 -123114495#50 -123114495#49 -123114495#48 -123114495#47 -123114495#46 -123114495#45 -123114495#44 -123114495#43 -123114495#42 -123114495#41 -123114495#40 -123114495#39 -123114495#38 -123114495#37 -123114495#36 -123114495#35 -123114495#34 -123114495#33 -123114495#32 -123114495#31 -123114495#30 -123114495#29 -123114495#28"/>
    </vehicle>
    <vehicle id="116.0" depart="0.00">
        <route edges="122596431 122596517#0 122596517#1 122596517#2 122596543#1 122596543#2 122596543#3 122459944#9 122459944#10 122459944#11 122459944#12 122459944#13 -122459860#4 -122459860#3 -122459860#2 -122459860#1 -122459860#0 1111034034 122460009#7 122460009#0 122460009#1 122460009#2 122460009#3 122459953#0 122459953#1 122459953#2 122459953#3 122459953#4 122459953#5 122459953#6 122459953#7 122459953#8 293951977#0 122460022#10 293951981#0 293951981#1 293951981#2 293951981#3 293951981#4 293951981#5 293951981#6 293951981#7 293951981#8 122463169#12 122463169#13 122463169#14 122463169#15 122463169#16 122463169#17 122968717#0"/>
    </vehicle>
    <vehicle id="117.0" depart="0.00">
        <route edges="-123123269#0 123123269#0 123123269#1 123123269#2 123123269#3 -122582272#1 -122582272#0 1116843317#0 1116843317#1 -1116843318#2 -1116843318#1 -1116843318#0 122582643#0 -364398748#25 -364398748#24 -364398748#23 -364398748#22 -364398748#21 -364398748#20 -364398748#19 -364398748#18 -364398748#17 -364398748#16 -364398748#15 -364398748#14 -364398748#13 -364398748#12 -364398748#11 -364398748#10 -364398748#9 -364398748#8 -364398748#7 -364398748#6 -364398748#5 -364398748#4 -364398748#3 -364398748#2 -364398748#1 -364398748#0 1116865407#2 1116865407#3 1116865407#0 -1116865408#12 -1116865408#11 -1116865408#10 -1116865408#9 -1116865408#8 -1116865408#7 -1116865408#6 -1116865408#5 -1116865408#4 -1116865408#3 -1116865408#2 -1116865408#1 -1116865408#0 122582403#0 122582403#1 122582403#2 1117980920#4 1117980920#0 1117980924 -1117980921#2 -1117980921#1 -1117980921#0 1289311491 -122460076#12 -122460076#11 -122460076#10 -122460076#9 -122460076#8 -122460076#7 -122460076#6 -122460076#5 -122460076#4 -122460076#3 -122460076#2 -122460076#1 -122460076#0 -122460005#31 -122460005#30 -122460005#29 -122460005#28 -122460005#27 -122460005#26 -122460005#25 -122460005#24 -122460005#23 -122460005#22 -122460005#21 -122460005#20 -122460005#19 -122460005#18 -122460005#17 -122460005#16 -122460005#15 -122460005#14 -122460005#13 -122460005#12 -122460005#11 -122460005#10 -122460005#9 -122460005#8 -122460005#7 -122460005#6 -122460005#5 -122460005#4 -122460005#3 -122460005#2 -122460005#1 -122460005#0 122460148#0 122460148#1 122460148#2 -122460085#6 -122460085#5 -122460085#4 -122460085#3 -122460085#2 -122460085#1 -122460085#0 122460101#5 122460101#6 122460101#7 122460101#8 122460101#9 1109232955 122460070#2 122460070#3 122460070#4 122460070#5 -122927716#10 122460024#15 122941926 -122941985#2"/>
    </vehicle>
    <vehicle id="118.0" depart="0.00">
        <route edges="421994440#4 -422202936#0 421994389#1 422202930 122459974#22 -293953307 -1118011879 -1328994175 -1062832924 -1062832923 -1328994177 122460076#10 122460076#11 122460076#12 -1289311491 -122460141#7 -122460141#6 -123129400#15 -123129400#14 -123129400#13 -123129400#12 -123129400#11"/>
    </vehicle>
    <vehicle id="119.0" depart="0.00">
        <route edges="122596422#4 -122596422#4 -122596422#3 -122596422#2 -122596422#1 -122923812#14 -122923812#13 -122923812#12 -122923812#11 -122923812#10 -122923812#9 -122923812#8 122923812#8"/>
    </vehicle>
    <vehicle id="12.0" depart="0.00">
        <route edges="422621555 422621571 422621569#2 123144650#1 -123144611#0 -122459939#4 -122459939#3 -122459939#2 -122459939#1 -122459939#0 122460005#26 122460005#27 122460005#28 122460005#29 122460005#30 122460005#31 122460076#0 122460076#1 122460076#2 122460076#3 122460076#4 122460076#5 122460076#6 119997632#0 119997632#1 303602792 122958841 122958842#0 122958842#1 122958842#2 122958842#3 122958842#4 -123114495#69 -123114495#68 -123114495#67 -123114495#66 -123114495#65 -421987317#2 -421987317#1 -421987317#0"/>
    </vehicle>
    <vehicle id="120.0" depart="0.00">
        <route edges="-422605728#1 -422605728#0 123144664#5 122460005#25 122460005#26 122460005#27 122460005#28 122460005#29 122460005#30 122460005#31 122460076#0 122460076#1 122460076#2 122460076#3 122460076#4 122460076#5 122460076#6 122460076#7 122460076#8 122460076#9 122460076#10 122460076#11 122460076#12 -1289311491 1117980921#0 1117980921#1 1117980921#2 1117980923#0 1117980923#1 1117980920#2 1117980920#3 1117980920#4 293953308#0 293953308#1 293953308#2 293953308#3 293953308#4 293953308#5 293953308#6 293953308#7 293953308#8 293953308#9 293953308#10 -1117979861#4 -1117979861#3 -1117979861#2 -1117979861#1 -1117979861#0 122459913#1 122459913#2 122460004#0 122460004#1 122460004#2 122582607#0 122582607#1 122582607#2 122582607#3"/>
    </vehicle>
    <vehicle id="121.0" depart="0.00">
        <route edges="122459860#1 -122459860#1 -122459860#0 1111034034 122460009#7 122460009#0 122460009#1 122460009#2 122460009#3 122459953#0 122459953#1 122460147#2 122460147#3 122460147#4 122460005#0 122460005#1 122460005#2 122460005#3 122460005#4 122460005#5 122460005#6 122460005#7 122460005#8 122460005#9 122460005#10 122460005#11 122460005#12 122460005#13 122460005#14 122460005#15 122460005#16 122460005#17 122460005#18 122460005#19 122460005#20 122460005#21 122460005#22 122460005#23 122460005#24 122460005#25 122460005#26 122460005#27 122460005#28 122460005#29 122460005#30 122460005#31 122460076#0 122460076#1 122460076#2 122460076#3 122460076#4 122460076#5 122460076#6 122460076#7 122460076#8 -1328994176 -1328994178 1062832924 1328994175 1118011879 293953307 -122459974#22 -122459974#21 -122459974#20 -122459974#19 -123114534#22 -123114534#21 -123114534#20 -123114534#19 -123114534#18 -123114534#17 -123114534#16 -123114534#15 -123114534#14 -123114534#13 -123114534#12 -123114534#11 -123114534#10 -123114534#9 -123114534#8 -123114534#7 -123114534#6 -123114534#5 -123114534#4 -123114534#3 -123114534#2 -123114534#1 -123114534#0 1116772854#0 1116772854#1 1116772854#2 1116772854#3 1116772854#4 422603450#0 422603450#1"/>
    </vehicle>
    <vehicle id="122.0" depart="0.00">
        <route edges="-123114534#2 123114534#2 123114534#3 123114534#4 123114534#5 123114534#6 123114534#7 123114534#8 123114534#9 123114534#10 123114534#11 123114534#12 123114534#13 123114534#14 123114534#15 123114534#16 123114534#17 123114534#18 123114534#19"/>
    </vehicle>
    <vehicle id="123.0" depart="0.00">
        <route edges="-123123281#4 123123281#4 -123123279#5 -123123279#4 -123123279#3 -123123279#2 -123123279#1 -123123279#0 -123123212#15 -123123212#14 -123123212#13 -123123212#12 -123123212#11 -123123212#10 -123123212#9 -123123212#8 -123123212#7 -123123212#6 -123123212#5 -123123212#4 -123123212#3 -123123212#2 -123123091 123123153 -123123146#2 -123123146#1 -123123146#0 123114497#3 123114497#4 123114497#5 123114497#6 -123114487 123114462#0 123114462#1 123114462#2 123114462#3 123114462#4 123114462#5 123114462#6 123114462#7 123114462#8 123114462#9 123114491#7 -1105166649#4 -1105166649#3 -1105166649#2 -1105166649#1 -422600443#11 -422600443#10 -422600443#9 -422600443#8 -422600443#7 -422600443#6 -422600443#5 -422600443#4 -422600443#3 -422600443#2 -422600443#1 -422600443#0 1116763161#1 -422600466#3 -422600447#0"/>
    </vehicle>
    <vehicle id="124.0" depart="0.00">
        <route edges="122953925#0 -1116445624 122953962#6 -122459943#13 -122459943#12 -122459943#11 -122459943#10 -122459943#9 -122459943#8 -122459943#7 -122459943#6 -122459943#5 -122459943#4 -123142596#4 -123142596#3 -123142596#2 -123142596#1 -123142596#0 -122459939#8 -122459939#7 -122459939#6 -122459939#5 -122459939#4 -122459939#3 -122459939#2 -122459939#1 -122459939#0 122460005#26 122460005#27 122460005#28 122460005#29 122460005#30 122460005#31 122460076#0 122460076#1 122460076#2 122460076#3 122460076#4 122460076#5 122460076#6 122460076#7 122460076#8 122460076#9 122460076#10 122460076#11 122460076#12 -1289311491"/>
    </vehicle>
    <vehicle id="125.0" depart="0.00">
        <route edges="-421979140#1 -421983103#7 -421983103#6 -421979141#12 -421979141#11 -421979141#10 -421979141#9 -421979141#8 -421979141#7 -421979141#6 -421979141#5 -421979141#4 -421979141#3 -421979141#2 -421979141#1 -421979141#0 122459949#30 122459949#31 122459949#32 122459949#33 122459949#34 122459949#35 122459949#36 122459949#37 122459949#38 122459974#9 122459974#10 122459974#11 122459974#12 122459974#13 122459974#14 122459974#15 122459974#16 122459974#17 122459974#18 122459974#19 122459974#20 122459974#21 122459974#22 -422600444#37 -422600444#36 -422600444#35 -422600444#34 -422600444#33 -422600444#32 -422600444#31 -422600444#30 -422600444#29 -422600444#28 1066957144#0 1066957145 123114491#1 123114491#2 123114491#3 123114491#4 123114491#5 123114491#6 -123114462#9 -123114462#8 -123114462#7 -123114462#6 -123114540#2 -123114540#1 -123114540#0 123114564#3 123114564#4 123114564#5 1083149730 123123278#4"/>
    </vehicle>
    <vehicle id="126.0" depart="0.00">
        <route edges="-122582349 -122582648#3 -122582648#2 -122582648#1 -122582648#0 122462644#15 122459913#4 -122460123#11 -122460123#10 -122460123#9 -122460123#8 -122460123#7 -122460123#6 -122460123#5 -122460123#4 -122460123#3 -122460123#2 -122460123#1 -122460123#0 122462689#0 122462689#1 122462606#0 122462606#1 122462691 122462678#0 122462678#1 449238494#0 449238494#1 449238494#2 122459933#1 122459933#2 122953731#0 122953731#1 122953731#2 122953731#3 122953731#4 -122953958#8 -423106989#2"/>
    </vehicle>
    <vehicle id="127.0" depart="0.00">