<configuration>
    <input>
        <net-file value="mymap.net.xml"/>
        <route-files value="routes.rou.xml"/>
    </input>

    <time>
        <begin value="0"/>
        <end value="43200"/>
    </time>

    <output>
        <!-- Simulation summary (per step) -->
        <summary-output value="Output/summary.xml"/>
        <summary-output.period value="600"/>
    </output>
</configuration>
