<configuration>
    <input>
        <net-file value="straight.net.xml"/>
        <route-files value="straight.rou.xml"/>
    </input>

    <time>
        <begin value="0"/>
        <end value="60"/>
    </time>
</configuration>
